[General]
network = Block
repeat = 10
sim-time-limit = 1000s
warmup-period = 0s
**.alloca.resourceModuleName = "risorse"
**.dealloca.resourceModuleName = "risorse"
**.is.delay = exponential(3s)
**.servente.serviceTime = exponential(${2, 3, 4}s)
**.dealloca.resourceAmount = 2
**.alloca.resourceAmount = 2
**.risorse.amount = 6
**.sorgente.numJobs = (${10, 20, 30})
**.result-recording-modes = all