[General]
network = Rete
record-eventlog = true
repeat = 30
sim-time-limit = 1000s
simtime-resolution = ps
**.Servente.serviceTime = exponential(1s)
**.Arrivi.interArrivalTime = exponential(2s)
