[General]
network = Rete
record-eventlog = false
repeat = 10
sim-time-limit = 1000s
simtime-resolution = ps
**.Servente.serviceTime = exponential(1s)
**.Arrivi.interArrivalTime = exponential(2s)
